Circuit: * C:\users\michal\Desktop\Geiger\projekt\dodatkowe.asc

WARNING: Specified period is not longer than the sum of Trise, Tfall, and Ton for v4.  Increasing period to 6.93154e-310
Direct Newton iteration for .op point succeeded.

Date: Sun Mar 24 19:47:16 2024
Total elapsed time: 0.132 seconds.

tnom = 27
temp = 27
method = modified trap
totiter = 5962
traniter = 5942
tranpoints = 2363
accept = 2016
rejected = 347
matrix size = 24
fillins = 0
solver = Alternate
Avg thread counts: 2.2/4.1/4.0/2.2
Matrix Compiler1: 1.35 KB object code size  0.3/0.3/[0.2]
Matrix Compiler2: off  [0.3]/0.4/0.4

